[TITLE]
;;Project Title/Notes
20% reduces dimention size

[OPTIONS]
;;Option             Value
FLOW_UNITS           CMS
INFILTRATION         CURVE_NUMBER
FLOW_ROUTING         KINWAVE
LINK_OFFSETS         DEPTH
MIN_SLOPE            0
ALLOW_PONDING        YES
SKIP_STEADY_STATE    NO

START_DATE           05/03/2015
START_TIME           00:00:00
REPORT_START_DATE    05/03/2015
REPORT_START_TIME    00:00:00
END_DATE             05/03/2015
END_TIME             10:00:00
SWEEP_START          01/01
SWEEP_END            12/31
DRY_DAYS             0
REPORT_STEP          00:05:00
WET_STEP             00:05:00
DRY_STEP             01:00:00
ROUTING_STEP         0:00:30 

INERTIAL_DAMPING     PARTIAL
NORMAL_FLOW_LIMITED  BOTH
FORCE_MAIN_EQUATION  H-W
VARIABLE_STEP        0.75
LENGTHENING_STEP     0
MIN_SURFAREA         0
MAX_TRIALS           0
HEAD_TOLERANCE       0
SYS_FLOW_TOL         5
LAT_FLOW_TOL         5
MINIMUM_STEP         0.5
THREADS              1

[EVAPORATION]
;;Data Source    Parameters
;;-------------- ----------------
CONSTANT         0.0
DRY_ONLY         NO

[RAINGAGES]
;;Name           Format    Interval SCF      Source    
;;-------------- --------- ------ ------ ----------
Rain Gage-01     CUMULATIVE 0:10     1.0      TIMESERIES TS-03           

[SUBCATCHMENTS]
;;Name           Rain Gage        Outlet           Area     %Imperv  Width    %Slope   CurbLen  SnowPack        
;;-------------- ---------------- ---------------- -------- -------- -------- -------- -------- ----------------
1-1              Rain Gage-01     In_W_J_FRH_03    33.223000 2        209      19.5     0                        
1-10             Rain Gage-01     Jun-1-33         2.036000 4        71       11.8     0                        
1-11             Rain Gage-01     Jun-1-31         2.653000 36       101      13       0                        
1-12             Rain Gage-01     Jun-1-32         3.538000 36       124      10.8     0                        
1-13             Rain Gage-01     Jun-1-34         21.731000 11       198      12.9     0                        
1-14             Rain Gage-01     Jun-1-29         1.417000 0        33       14       0                        
1-15             Rain Gage-01     Jun-1-01         15.105000 15       152      12.7     0                        
1-16             Rain Gage-01     Jun-1-16         1.880000 0        89       21.1     0                        
1-17             Rain Gage-01     Jun-1-17         3.276000 0        48       13.5     0                        
1-18             Rain Gage-01     Jun-1-03         7.237000 16       87       10.3     0                        
1-19             Rain Gage-01     Jun-1-38         9.484000 2        158      17.9     0                        
1-2              Rain Gage-01     Jun-1-34         155.671000 0        589      46.5     0                        
1-20             Rain Gage-01     Jun-1-26         4.719000 9        96       14.2     0                        
1-21             Rain Gage-01     Jun-1-13         4.897000 44       109      11.9     0                        
1-22             Rain Gage-01     Jun-1-35         0.919000 35       53       9.1      0                        
1-23             Rain Gage-01     Jun-1-25         0.600000 0        14       11.1     0                        
1-24             Rain Gage-01     Jun-1-22         0.279000 0        17       6        0                        
1-25             Rain Gage-01     Jun-1-30         0.719000 0        38       9.4      0                        
1-26             Rain Gage-01     Jun-1-44         1.271000 1        13       9.4      0                        
1-27             Rain Gage-01     Jun-1-14         1.015000 31       58       12.2     0                        
1-28             Rain Gage-01     Jun-1-39         0.564000 0        12       14.2     0                        
1-29             Rain Gage-01     Jun-1-01         37.050000 0        327      38.7     0                        
1-3              Rain Gage-01     Jun-1-28         34.811000 0        380      37.4     0                        
1-4              Rain Gage-01     Jun-1-24         8.162000 16       110      17.5     0                        
1-5              Rain Gage-01     Jun-1-11         67.510000 1        344      34.1     0                        
1-6              Rain Gage-01     Jun-1-12         8.091000 1        112      13.6     0                        
1-7              Rain Gage-01     Jun-1-37         25.543000 1        326      14.2     0                        
1-8              Rain Gage-01     Jun-1-20         9.967000 20       119      16.1     0                        
1-9              Rain Gage-01     Jun-1-42         3.172000 33       71       12.8     0                        
2-1              Rain Gage-01     Jun-2-128        7.307572 0        166      7.5      0                        
2-10             Rain Gage-01     Jun-2-136        2.338687 19       101      10.4     0                        
2-11             Rain Gage-01     Jun-2-82         2.288194 26       102      11.1     0                        
2-12             Rain Gage-01     Jun-2-123        7.328636 22       162      9.9      0                        
2-13             Rain Gage-01     Jun-2-140        2.347865 9        74       14.3     0                        
2-14             Rain Gage-01     Jun-2-138        3.620015 19       128      9.7      0                        
2-15             Rain Gage-01     Jun-2-142        1.304824 0        29       17.9     0                        
2-16             Rain Gage-01     Jun-2-70         0.965888 0        31       11       0                        
2-17             Rain Gage-01     Jun-2-11         0.542666 0        17       10.8     0                        
2-18             Rain Gage-01     Jun-2-94         4.989215 1        131      13.2     0                        
2-19             Rain Gage-01     Jun-2-124        7.269757 22       171      10.2     0                        
2-2              Rain Gage-01     Jun-2-74         5.641006 31       125      11.2     0                        
2-20             Rain Gage-01     Jun-2-130        2.529589 0        101      13       0                        
2-21             Rain Gage-01     Jun-2-95         9.129649 0        173      11.1     0                        
2-22             Rain Gage-01     Jun-2-98         1.043549 0        41       9        0                        
2-23             Rain Gage-01     Jun-2-144        1.144382 0        71       13.4     0                        
2-24             Rain Gage-01     Jun-2-100        5.122627 20       133      11.4     0                        
2-25             Rain Gage-01     Jun-2-104        1.855681 23       78       12.7     0                        
2-26             Rain Gage-01     Jun-2-96         2.730082 8        88       7.1      0                        
2-27             Rain Gage-01     Jun-2-79         0.405857 0        25       11.8     0                        
2-28             Rain Gage-01     Jun-2-29         3.614298 28       129      12.5     0                        
2-29             Rain Gage-01     Jun-2-106        3.036723 6        120      15.9     0                        
2-3              Rain Gage-01     Jun-2-73         8.336541 36       182      11.4     0                        
2-30             Rain Gage-01     Jun-2-52         1.103313 12       59       9.6      0                        
2-31             Rain Gage-01     Jun-2-102        2.338562 32       107      6.2      0                        
2-32             Rain Gage-01     Jun-2-114        0.922659 0        25       9.4      0                        
2-33             Rain Gage-01     Jun-2-24         1.798853 2        63       6.3      0                        
2-34             Rain Gage-01     Jun-2-24         1.540722 1        60       8.2      0                        
2-35             Rain Gage-01     Jun-2-26         3.231646 8        100      6.2      0                        
2-36             Rain Gage-01     Jun-2-69         0.577529 1        28       12.5     0                        
2-37             Rain Gage-01     Jun-2-70         6.002884 22       110      7.3      0                        
2-38             Rain Gage-01     Jun-2-70         2.126639 6        98       8.8      0                        
2-39             Rain Gage-01     Jun-2-70         0.799653 0        51       11.1     0                        
2-4              Rain Gage-01     Jun-2-88         3.140064 0        111      9.5      0                        
2-40             Rain Gage-01     Jun-2-11         1.691708 0        51       9.5      0                        
2-41             Rain Gage-01     Jun-2-19         1.095633 0        46       11.5     0                        
2-42             Rain Gage-01     Jun-2-15         3.703977 0        82       12.9     0                        
2-43             Rain Gage-01     Jun-2-15         1.320528 21       56       6.8      0                        
2-44             Rain Gage-01     Jun-2-63         4.696960 18       152      7.6      0                        
2-45             Rain Gage-01     Jun-2-34         1.259111 0        77       16.1     0                        
2-46             Rain Gage-01     Jun-2-20         1.531749 34       85       11.4     0                        
2-47             Rain Gage-01     Jun-2-18         2.010479 28       75       11.9     0                        
2-48             Rain Gage-01     Jun-2-21         3.105046 29       121      9.7      0                        
2-49             Rain Gage-01     Jun-2-03         3.845353 5        109      10       0                        
2-5              Rain Gage-01     Jun-2-84         71.680073 0        335      30.7     0                        
2-50             Rain Gage-01     Jun-2-25         0.849656 0        42       8.7      0                        
2-51             Rain Gage-01     Jun-2-27         8.709612 8        163      9.1      0                        
2-52             Rain Gage-01     Jun-2-68         0.772118 0        21       7        0                        
2-53             Rain Gage-01     Jun-2-28         5.166027 2        115      10.8     0                        
2-54             Rain Gage-01     Jun-2-121        2.570052 1        94       8.5      0                        
2-55             Rain Gage-01     Jun-2-55         4.683013 22       141      8.9      0                        
2-56             Rain Gage-01     Jun-2-05         2.475564 5        104      6.9      0                        
2-57             Rain Gage-01     Jun-2-56         3.073345 18       98       7.4      0                        
2-58             Rain Gage-01     Jun-2-60         2.656454 26       114      8.5      0                        
2-59             Rain Gage-01     Jun-2-60         1.463067 7        77       7.9      0                        
2-6              Rain Gage-01     Jun-2-72         0.533139 0        35       21.5     0                        
2-60             Rain Gage-01     Jun-2-07         1.362727 36       61       9.8      0                        
2-61             Rain Gage-01     Jun-2-61         1.455969 3        77       5.4      0                        
2-62             Rain Gage-01     Jun-2-61         0.946765 32       43       7        0                        
2-63             Rain Gage-01     Jun-2-08         4.151002 24       117      7.9      0                        
2-64             Rain Gage-01     Jun-2-67         1.160544 11       53       13.1     0                        
2-65             Rain Gage-01     Jun-2-64         0.950215 0        22       11.4     0                        
2-66             Rain Gage-01     Jun-2-39         2.348933 21       100      7.3      0                        
2-67             Rain Gage-01     Jun-2-40         1.969899 22       48       8.4      0                        
2-68             Rain Gage-01     Jun-2-41         3.407987 35       120      8.7      0                        
2-69             Rain Gage-01     Jun-2-43         3.197467 26       111      8.6      0                        
2-7              Rain Gage-01     In_W_J_ZGL_02_03_3 3.249103 0        56       10       0                        
2-70             Rain Gage-01     Jun-2-38         8.270364 15       165      9.4      0                        
2-71             Rain Gage-01     Jun-2-38         3.454801 31       81       12.4     0                        
2-72             Rain Gage-01     Jun-2-44         1.578582 25       83       7.7      0                        
2-73             Rain Gage-01     Jun-2-91         2.466122 2        76       18.9     0                        
2-74             Rain Gage-01     Jun-2-46         4.802359 24       129      8.4      0                        
2-75             Rain Gage-01     Jun-2-133        7.693145 39       152      8.5      0                        
2-76             Rain Gage-01     Jun-2-82         1.384761 0        70       8.2      0                        
2-77             Rain Gage-01     Jun-2-129        3.711089 0        103      11       0                        
2-78             Rain Gage-01     Jun-2-01         6.910636 7        151      8.7      0                        
2-79             Rain Gage-01     Jun-2-65         2.904812 12       101      9        0                        
2-8              Rain Gage-01     Jun-2-85         57.499381 3        398      28.1     0                        
2-80             Rain Gage-01     Jun-2-49         1.762376 31       72       9.4      0                        
2-81             Rain Gage-01     Jun-2-45         1.563232 10       75       6.8      0                        
2-82             Rain Gage-01     Jun-2-42         4.499884 29       148      7.3      0                        
2-83             Rain Gage-01     Jun-2-121        1.459261 24       64       9.8      0                        
2-84             Rain Gage-01     Jun-2-11         0.488558 0        25       11.1     0                        
2-85             Rain Gage-01     Jun-2-91         4.912991 0        145      13.2     0                        
2-86             Rain Gage-01     Jun-2-131        2.588329 16       89       8.4      0                        
2-87             Rain Gage-01     Jun-2-78         0.772007 0        25       9.1      0                        
2-88             Rain Gage-01     Jun-2-12         0.378926 0        12       7.1      0                        
2-9              Rain Gage-01     Jun-2-134        9.859456 1        177      15.4     0                        
3-1              Rain Gage-01     Jun-3-100        4.109000 0        101      11.1     0                        
3-10             Rain Gage-01     Jun-3-115        2.531000 7        72       12.4     0                        
3-11             Rain Gage-01     Jun-3-111        1.108000 0        47       6.2      0                        
3-12             Rain Gage-01     Jun-3-116        11.441000 5        180      8.9      0                        
3-128            Rain Gage-01     In_W_J_VSK_05(W_U_VSK_03) 33.015000 0        245      18.7     0                        
3-13             Rain Gage-01     Jun-3-114        14.005000 7        162      29.5     0                        
3-14             Rain Gage-01     Jun-3-110        4.208000 5        124      8.2      0                        
3-142            Rain Gage-01     Jun-3-213        6.640000 0        129      10.9     0                        
3-15             Rain Gage-01     Jun-3-154        0.791000 1        31       5.2      0                        
3-16             Rain Gage-01     Jun-3-155        3.319000 14       101      8.7      0                        
3-17             Rain Gage-01     Jun-3-156        0.312000 1        18       4        0                        
3-18             Rain Gage-01     Jun-3-109        9.126000 0        161      12.7     0                        
3-19             Rain Gage-01     Jun-3-152        5.826000 22       143      14.5     0                        
3-2              Rain Gage-01     Jun-3-100        6.193000 1        135      16.9     0                        
3-20             Rain Gage-01     Jun-3-117        13.201000 1        159      11.3     0                        
3-21             Rain Gage-01     Jun-3-225        3.888000 0        84       13       0                        
3-22             Rain Gage-01     Jun-3-149        4.216000 0        82       7.7      0                        
3-3              Rain Gage-01     Jun-3-101        1.743000 11       62       14.7     0                        
3-4              Rain Gage-01     Jun-3-106        2.390000 17       56       17.7     0                        
3-5              Rain Gage-01     Jun-3-102        12.722000 15       143      24       0                        
3-6              Rain Gage-01     Jun-3-104        5.296000 16       81       32.1     0                        
3-7              Rain Gage-01     Jun-3-105        1.994000 23       83       15.1     0                        
3-8              Rain Gage-01     Jun-3-113        2.784000 4        110      14.1     0                        
3-9              Rain Gage-01     Jun-3-103        0.887000 0        22       6.2      0                        

[SUBAREAS]
;;Subcatchment   N-Imperv   N-Perv     S-Imperv   S-Perv     PctZero    RouteTo    PctRouted 
;;-------------- ---------- ---------- ---------- ---------- ---------- ---------- ----------
1-1              0.015      0.1        0          0          25         OUTLET    
1-10             0.015      0.1        0          0          25         OUTLET    
1-11             0.015      0.1        0          0          25         OUTLET    
1-12             0.015      0.1        0          0          25         OUTLET    
1-13             0.015      0.1        0          0          25         OUTLET    
1-14             0.015      0.1        0          0          25         OUTLET    
1-15             0.015      0.1        0          0          25         OUTLET    
1-16             0.015      0.1        0          0          25         OUTLET    
1-17             0.015      0.1        0          0          25         OUTLET    
1-18             0.015      0.1        0          0          25         OUTLET    
1-19             0.015      0.1        0          0          25         OUTLET    
1-2              0.015      0.1        0          0          25         OUTLET    
1-20             0.015      0.1        0          0          25         OUTLET    
1-21             0.015      0.1        0          0          25         OUTLET    
1-22             0.015      0.1        0          0          25         OUTLET    
1-23             0.015      0.1        0          0          25         OUTLET    
1-24             0.015      0.1        0          0          25         OUTLET    
1-25             0.015      0.1        0          0          25         OUTLET    
1-26             0.015      0.1        0          0          25         OUTLET    
1-27             0.015      0.1        0          0          25         OUTLET    
1-28             0.015      0.1        0          0          25         OUTLET    
1-29             0.015      0.1        0          0          25         OUTLET    
1-3              0.015      0.1        0          0          25         OUTLET    
1-4              0.015      0.1        0          0          25         OUTLET    
1-5              0.015      0.1        0          0          25         OUTLET    
1-6              0.015      0.1        0          0          25         OUTLET    
1-7              0.015      0.1        0          0          25         OUTLET    
1-8              0.015      0.1        0          0          25         OUTLET    
1-9              0.015      0.1        0          0          25         OUTLET    
2-1              0.015      0.1        0          0          25         OUTLET    
2-10             0.015      0.1        0          0          25         OUTLET    
2-11             0.015      0.1        0          0          25         OUTLET    
2-12             0.015      0.1        0          0          25         OUTLET    
2-13             0.015      0.1        0          0          25         OUTLET    
2-14             0.015      0.1        0          0          25         OUTLET    
2-15             0.015      0.1        0          0          25         OUTLET    
2-16             0.015      0.1        0          0          25         OUTLET    
2-17             0.015      0.1        0          0          25         OUTLET    
2-18             0.015      0.1        0          0          25         OUTLET    
2-19             0.015      0.1        0          0          25         OUTLET    
2-2              0.015      0.1        0          0          25         OUTLET    
2-20             0.015      0.1        0          0          25         OUTLET    
2-21             0.015      0.1        0          0          25         OUTLET    
2-22             0.015      0.1        0          0          25         OUTLET    
2-23             0.015      0.1        0          0          25         OUTLET    
2-24             0.015      0.1        0          0          25         OUTLET    
2-25             0.015      0.1        0          0          25         OUTLET    
2-26             0.015      0.1        0          0          25         OUTLET    
2-27             0.015      0.1        0          0          25         OUTLET    
2-28             0.015      0.1        0          0          25         OUTLET    
2-29             0.015      0.1        0          0          25         OUTLET    
2-3              0.015      0.1        0          0          25         OUTLET    
2-30             0.015      0.1        0          0          25         OUTLET    
2-31             0.015      0.1        0          0          25         OUTLET    
2-32             0.015      0.1        0          0          25         OUTLET    
2-33             0.015      0.1        0          0          25         OUTLET    
2-34             0.015      0.1        0          0          25         OUTLET    
2-35             0.015      0.1        0          0          25         OUTLET    
2-36             0.015      0.1        0          0          25         OUTLET    
2-37             0.015      0.1        0          0          25         OUTLET    
2-38             0.015      0.1        0          0          25         OUTLET    
2-39             0.015      0.1        0          0          25         OUTLET    
2-4              0.015      0.1        0          0          25         OUTLET    
2-40             0.015      0.1        0          0          25         OUTLET    
2-41             0.015      0.1        0          0          25         OUTLET    
2-42             0.015      0.1        0          0          25         OUTLET    
2-43             0.015      0.1        0          0          25         OUTLET    
2-44             0.015      0.1        0          0          25         OUTLET    
2-45             0.015      0.1        0          0          25         OUTLET    
2-46             0.015      0.1        0          0          25         OUTLET    
2-47             0.015      0.1        0          0          25         OUTLET    
2-48             0.015      0.1        0          0          25         OUTLET    
2-49             0.015      0.1        0          0          25         OUTLET    
2-5              0.015      0.1        0          0          25         OUTLET    
2-50             0.015      0.1        0          0          25         OUTLET    
2-51             0.015      0.1        0          0          25         OUTLET    
2-52             0.015      0.1        0          0          25         OUTLET    
2-53             0.015      0.1        0          0          25         OUTLET    
2-54             0.015      0.1        0          0          25         OUTLET    
2-55             0.015      0.1        0          0          25         OUTLET    
2-56             0.015      0.1        0          0          25         OUTLET    
2-57             0.015      0.1        0          0          25         OUTLET    
2-58             0.015      0.1        0          0          25         OUTLET    
2-59             0.015      0.1        0          0          25         OUTLET    
2-6              0.015      0.1        0          0          25         OUTLET    
2-60             0.015      0.1        0          0          25         OUTLET    
2-61             0.015      0.1        0          0          25         OUTLET    
2-62             0.015      0.1        0          0          25         OUTLET    
2-63             0.015      0.1        0          0          25         OUTLET    
2-64             0.015      0.1        0          0          25         OUTLET    
2-65             0.015      0.1        0          0          25         OUTLET    
2-66             0.015      0.1        0          0          25         OUTLET    
2-67             0.015      0.1        0          0          25         OUTLET    
2-68             0.015      0.1        0          0          25         OUTLET    
2-69             0.015      0.1        0          0          25         OUTLET    
2-7              0.015      0.1        0          0          25         OUTLET    
2-70             0.015      0.1        0          0          25         OUTLET    
2-71             0.015      0.1        0          0          25         OUTLET    
2-72             0.015      0.1        0          0          25         OUTLET    
2-73             0.015      0.1        0          0          25         OUTLET    
2-74             0.015      0.1        0          0          25         OUTLET    
2-75             0.015      0.1        0          0          25         OUTLET    
2-76             0.015      0.1        0          0          25         OUTLET    
2-77             0.015      0.1        0          0          25         OUTLET    
2-78             0.015      0.1        0          0          25         OUTLET    
2-79             0.015      0.1        0          0          25         OUTLET    
2-8              0.015      0.1        0          0          25         OUTLET    
2-80             0.015      0.1        0          0          25         OUTLET    
2-81             0.015      0.1        0          0          25         OUTLET    
2-82             0.015      0.1        0          0          25         OUTLET    
2-83             0.015      0.1        0          0          25         OUTLET    
2-84             0.015      0.1        0          0          25         OUTLET    
2-85             0.015      0.1        0          0          25         OUTLET    
2-86             0.015      0.1        0          0          25         OUTLET    
2-87             0.015      0.1        0          0          25         OUTLET    
2-88             0.015      0.1        0          0          25         OUTLET    
2-9              0.015      0.1        0          0          25         OUTLET    
3-1              0.015      0.1        0          0          25         OUTLET    
3-10             0.015      0.1        0          0          25         OUTLET    
3-11             0.015      0.1        0          0          25         OUTLET    
3-12             0.015      0.1        0          0          25         OUTLET    
3-128            0.015      0.1        0          0          25         OUTLET    
3-13             0.015      0.1        0          0          25         OUTLET    
3-14             0.015      0.1        0          0          25         OUTLET    
3-142            0.015      0.1        0          0          25         OUTLET    
3-15             0.015      0.1        0          0          25         OUTLET    
3-16             0.015      0.1        0          0          25         OUTLET    
3-17             0.015      0.1        0          0          25         OUTLET    
3-18             0.015      0.1        0          0          25         OUTLET    
3-19             0.015      0.1        0          0          25         OUTLET    
3-2              0.015      0.1        0          0          25         OUTLET    
3-20             0.015      0.1        0          0          25         OUTLET    
3-21             0.015      0.1        0          0          25         OUTLET    
3-22             0.015      0.1        0          0          25         OUTLET    
3-3              0.015      0.1        0          0          25         OUTLET    
3-4              0.015      0.1        0          0          25         OUTLET    
3-5              0.015      0.1        0          0          25         OUTLET    
3-6              0.015      0.1        0          0          25         OUTLET    
3-7              0.015      0.1        0          0          25         OUTLET    
3-8              0.015      0.1        0          0          25         OUTLET    
3-9              0.015      0.1        0          0          25         OUTLET    

[INFILTRATION]
;;Subcatchment   CurveNum              DryTime   
;;-------------- ---------- ---------- ----------
1-1              70.00      4          7         
1-10             73.00      4          7         
1-11             82.00      4          7         
1-12             82.00      4          7         
1-13             76.00      4          7         
1-14             82.00      4          7         
1-15             82.00      4          7         
1-16             82.00      4          7         
1-17             83.00      4          7         
1-18             82.00      4          7         